<?xml version="1.0" encoding="UTF-8"?>
<!-- Simple IGV graph: add two parameters -->
<graphDocument>
  <group>
    <properties>
      <p name="name">TestAddition</p>
    </properties>

    <method name="Test::add" shortName="add" bci="-1">
      <properties>
        <p name="bytes">5</p>
      </properties>
    </method>

    <graph name="After Parsing">
      <properties>
        <p name="name">After Parsing</p>
      </properties>

      <nodes>
        <node id="0">
          <properties>
            <p name="name">Root</p>
          </properties>
        </node>

        <node id="1">
          <properties>
            <p name="name">Start</p>
          </properties>
        </node>

        <node id="10">
          <properties>
            <p name="name">Parm</p>
            <p name="index">0</p>
            <p name="type">int</p>
          </properties>
        </node>

        <node id="11">
          <properties>
            <p name="name">Parm</p>
            <p name="index">1</p>
            <p name="type">int</p>
          </properties>
        </node>

        <node id="20">
          <properties>
            <p name="name">AddI</p>
          </properties>
        </node>

        <node id="30">
          <properties>
            <p name="name">Return</p>
          </properties>
        </node>
      </nodes>

      <edges>
        <edge from="0" to="1" type="control"/>
        <edge from="1" to="10" type="data"/>
        <edge from="1" to="11" type="data"/>
        <edge from="10" to="20" toIndex="0" type="data"/>
        <edge from="11" to="20" toIndex="1" type="data"/>
        <edge from="1" to="30" toIndex="0" type="control"/>
        <edge from="20" to="30" toIndex="1" type="data"/>
      </edges>
    </graph>
  </group>
</graphDocument>
